---- qbsp / ericw-tools v0.18.1 ----
Input file: demo.map
Output file: demo.bsp

---- LoadMapFile ----
*** WARNING 06: No info_player_deathmatch entities in level
           60 faces
           10 brushes
            5 entities
            4 unique texnames
           23 texinfo

Opened WAD: C:/School/FA20/GD/quake-leveldesign-starterkit/wads/id1.wad
Processing hull 0...
---- Brush_LoadEntity ----
           10 brushes
           15 planes
---- CSGFaces ----
           60 brushfaces
           34 csgfaces
           32 mergedfaces
---- SolidBSP ----
           46 split nodes
           13 solid leafs
           34 empty leafs
            0 water leafs
            0 detail leafs
            0 detail illusionary leafs
            0 detail fence leafs
            0 illusionary visblocker leafs
           72 leaffaces
           72 nodefaces
---- Portalize ----
           34 vis leafs
           34 vis clusters
           86 vis portals
---- FillOutside ----
           31 outleafs
---- MergeAll ----
           12 mergefaces
---- SolidBSP ----
           10 split nodes
            8 solid leafs
            3 empty leafs
            0 water leafs
            0 detail leafs
            0 detail illusionary leafs
            0 detail fence leafs
            0 illusionary visblocker leafs
           25 leaffaces
           18 nodefaces
---- Portalize ----
            3 vis leafs
            3 vis clusters
            3 vis portals
---- Tjunc ----
           26 world edges
           68 edge points
           12 edges added by tjunctions
            0 faces added by tjunctions
---- MakeFaceEdges ----
---- GrowRegions ----
Processing hull 1...
Processing hull 2...
*** WARNING 19: No entities in empty space -- no filling performed (hull 2)
---- WriteBSPFile ----
Wrote demo.bsp
           31 planes              620
           26 vertexes            312
           10 nodes               240
            9 texinfo             360
           18 faces               360
           61 clipnodes           488
            4 leafs               112
           25 marksurfaces         50
           84 surfedges           336
           43 edges               172
            8 textures          43876
              lightdata             0
              visdata               0
              entdata             362

0.266 seconds elapsed
Peak memory usage: 333062 (325.3k)
