---- qbsp / ericw-tools v0.18.1 ----
Input file: Edge.map
Output file: Edge.bsp

---- LoadMapFile ----
         1948 faces
          332 brushes
          146 entities
           23 unique texnames
           67 texinfo

Opened WAD: C:/School/FA20/GD/quake-leveldesign-starterkit/wads/id1.wad
Opened WAD: C:/School/FA20/GD/Quake-Level/wads/prototype_1_2.wad
Processing hull 0...
---- Brush_LoadEntity ----
          332 brushes
          189 planes
---- CSGFaces ----
         1948 brushfaces
         1671 csgfaces
         1516 mergedfaces
---- SolidBSP ----
         1786 split nodes
          748 solid leafs
         1002 empty leafs
           37 water leafs
            0 detail leafs
            0 detail illusionary leafs
            0 detail fence leafs
            0 illusionary visblocker leafs
         3286 leaffaces
         3068 nodefaces
---- Portalize ----
         1039 vis leafs
         1039 vis clusters
         2584 vis portals
---- FillOutside ----
          728 outleafs
---- MergeAll ----
          699 mergefaces
---- SolidBSP ----
          400 split nodes
          242 solid leafs
          151 empty leafs
            8 water leafs
            0 detail leafs
            0 detail illusionary leafs
            0 detail fence leafs
            0 illusionary visblocker leafs
         1195 leaffaces
          935 nodefaces
---- Portalize ----
          159 vis leafs
          159 vis clusters
          336 vis portals
---- Tjunc ----
          935 world edges
         3303 edge points
          767 edges added by tjunctions
            0 faces added by tjunctions
---- MakeFaceEdges ----
---- GrowRegions ----
Processing hull 1...
Processing hull 2...
---- WriteBSPFile ----
Wrote Edge.bsp
          294 planes             5880
         1272 vertexes          15264
          400 nodes              9600
           49 texinfo            1960
          935 faces             18700
         1021 clipnodes          8168
          160 leafs              4480
         1195 marksurfaces       2390
         4552 surfedges         18208
         2277 edges              9108
           23 textures         158776
              lightdata             0
              visdata               0
              entdata           13311

0.574 seconds elapsed
Peak memory usage: 11612318 (11.1M)
