---- qbsp / ericw-tools v0.18.1 ----
Input file: fate.map
Output file: fate.bsp

---- LoadMapFile ----
*** WARNING 05: No info_player_start entity in level
          966 faces
          161 brushes
            8 entities
            5 unique texnames
          339 texinfo

Opened WAD: C:/School/FA20/GD/quake-leveldesign-starterkit/wads/id1.wad
Opened WAD: C:/School/FA20/GD/Quake-Level/wads/prototype_1_2.wad
Processing hull 0...
---- Brush_LoadEntity ----
          161 brushes
          126 planes
---- CSGFaces ----
          966 brushfaces
          937 csgfaces
          908 mergedfaces
---- SolidBSP ----
         1105 split nodes
          444 solid leafs
          656 empty leafs
            6 water leafs
            0 detail leafs
            0 detail illusionary leafs
            0 detail fence leafs
            0 illusionary visblocker leafs
         2029 leaffaces
         1880 nodefaces
---- Portalize ----
          662 vis leafs
          662 vis clusters
         1603 vis portals
---- FillOutside ----
          460 outleafs
---- MergeAll ----
          511 mergefaces
---- SolidBSP ----
          334 split nodes
          189 solid leafs
          140 empty leafs
            6 water leafs
            0 detail leafs
            0 detail illusionary leafs
            0 detail fence leafs
            0 illusionary visblocker leafs
          922 leaffaces
          719 nodefaces
---- Portalize ----
          146 vis leafs
          146 vis clusters
          324 vis portals
---- Tjunc ----
          707 world edges
         2542 edge points
          622 edges added by tjunctions
            0 faces added by tjunctions
---- MakeFaceEdges ----
---- GrowRegions ----
Processing hull 1...
*** WARNING 19: No entities in empty space -- no filling performed (hull 1)
Processing hull 2...
*** WARNING 19: No entities in empty space -- no filling performed (hull 2)
---- WriteBSPFile ----
Wrote fate.bsp
          250 planes             5000
          990 vertexes          11880
          334 nodes              8016
          196 texinfo            7840
          719 faces             14380
         2487 clipnodes         19896
          147 leafs              4116
          922 marksurfaces       1844
         3498 surfedges         13992
         1750 edges              7000
            5 textures          76384
              lightdata             0
              visdata               0
              entdata             682

1.865 seconds elapsed
Peak memory usage: 9216800 (8.8M)
